Version 4.1
SHEET 1 964 680
WIRE -672 -816 -672 -832
WIRE -672 -720 -672 -736
WIRE -272 -720 -272 -736
WIRE -144 -720 -144 -784
WIRE -672 -544 -672 -560
WIRE -672 -480 -672 -496
WIRE -672 -384 -672 -400
WIRE -672 -208 -672 -224
WIRE -672 -32 -672 -48
WIRE -672 48 -672 32
WIRE -672 144 -672 128
WIRE -672 320 -672 304
WIRE -672 496 -672 480
FLAG -272 -720 0
FLAG -672 144 0
FLAG -672 320 0
FLAG -272 -816 vdd
FLAG -672 32 B1
FLAG -672 224 B2
FLAG -144 -720 0
FLAG -144 -784 gnd1
FLAG -672 496 0
FLAG -672 400 B3
FLAG -672 -384 0
FLAG -672 -208 0
FLAG -672 -496 A2
FLAG -672 -304 A3
FLAG -672 -32 0
FLAG -672 -128 B0
FLAG -672 -720 0
FLAG -672 -544 0
FLAG -672 -832 A0
FLAG -672 -640 A1
FLAG -224 -32 gnd1
FLAG -224 256 vdd
FLAG -224 0 A0
FLAG -224 32 A1
FLAG -224 64 A2
FLAG -224 96 A3
FLAG -224 128 B0
FLAG -224 160 B1
FLAG -224 192 B2
FLAG -224 224 B3
FLAG -96 0 out0
FLAG -96 32 out1
FLAG -96 64 out2
FLAG -96 96 out3
FLAG -96 128 out4
FLAG -96 160 out5
FLAG -96 192 out6
FLAG -96 224 out7
SYMBOL ASR1 -160 112 R0
SYMATTR InstName X1
SYMBOL voltage -672 208 R0
WINDOW 123 0 0 Left 0
WINDOW 39 0 0 Left 0
SYMATTR InstName B1
SYMATTR Value PULSE(0 5 0 10n 10n 0.5u 1u)
SYMBOL voltage -672 32 R0
WINDOW 123 0 0 Left 0
WINDOW 39 0 0 Left 0
SYMATTR InstName A1
SYMATTR Value PULSE(0 5 0 10n 10n 1u 2u)
SYMBOL voltage -272 -832 R0
SYMATTR InstName vdd1
SYMATTR Value 5
SYMBOL voltage -672 384 R0
WINDOW 123 0 0 Left 0
WINDOW 39 0 0 Left 0
SYMATTR InstName S1
SYMATTR Value PULSE(0 5 0 10n 10n 1u 2u)
SYMBOL voltage -672 -320 R0
WINDOW 123 0 0 Left 0
WINDOW 39 0 0 Left 0
SYMATTR InstName B2
SYMATTR Value PULSE(0 5 0 10n 10n 1u 2u)
SYMBOL voltage -672 -496 R0
WINDOW 123 0 0 Left 0
WINDOW 39 0 0 Left 0
SYMATTR InstName A2
SYMATTR Value PULSE(0 5 0 10n 10n 0.5u 1u)
SYMBOL voltage -672 -144 R0
WINDOW 123 0 0 Left 0
WINDOW 39 0 0 Left 0
SYMATTR InstName S2
SYMATTR Value PULSE(0 5 0 10n 10n 0.5u 1u)
SYMBOL voltage -672 -656 R0
WINDOW 123 0 0 Left 0
WINDOW 39 0 0 Left 0
SYMATTR InstName B3
SYMATTR Value PULSE(0 5 0 10n 10n 1u 2u)
SYMBOL voltage -672 -832 R0
WINDOW 123 0 0 Left 0
WINDOW 39 0 0 Left 0
SYMATTR InstName A3
SYMATTR Value PULSE(0 5 0 10n 10n 0.5u 1u)
TEXT -296 -616 Left 2 !.model NMOS1 nmos level=1\n+ vto=0.7 kp=120u lambda=0.02 UO=650\n+ phi=0.7 gamma=0.0 tox=2e-8\n+ CGDO=200e-12 CGSO=200e-12 CGBO=1e-10\n+ CJ=400e-6 CJSW=300e-12\n+ NSUB=1e17\n+ IS=1e-14
TEXT -296 -408 Left 2 !.model PMOS1 pmos level=1\n+ vto=-0.7 kp=60u lambda=0.02 UO=325\n+ phi=0.7 gamma=0.0 tox=2e-8\n+ CGDO=200e-12 CGSO=200e-12 CGBO=1e-10\n+ CJ=400e-6 CJSW=300e-12\n+ NSUB=1e17\n+ IS=1e-14\n+ TPG=-1
TEXT -288 -176 Left 2 !.tran 2u
