Version 4.1
SHEET 1 880 680
WIRE -528 -672 -528 -688
WIRE -528 -576 -528 -592
WIRE -128 -576 -128 -592
WIRE 0 -576 0 -640
WIRE -528 -400 -528 -416
WIRE -528 -336 -528 -352
WIRE -528 -240 -528 -256
WIRE -528 -64 -528 -80
FLAG -128 -576 0
FLAG -128 -672 vdd
FLAG 0 -576 0
FLAG 0 -640 gnd1
FLAG -528 -240 0
FLAG -528 -64 0
FLAG -528 -352 A2
FLAG -528 -160 A3
FLAG -528 -576 0
FLAG -528 -400 0
FLAG -528 -688 A0
FLAG -528 -496 A1
FLAG 160 208 gnd1
FLAG 160 176 vdd
FLAG 256 80 A0
FLAG 192 80 A1
FLAG 224 240 A2
FLAG 304 144 out0
FLAG 304 176 out1
FLAG 304 208 out2
FLAG 304 112 A3
SYMBOL block1_mod 224 160 R0
SYMATTR InstName X1
SYMBOL voltage -128 -688 R0
SYMATTR InstName vdd1
SYMATTR Value 5
SYMBOL voltage -528 -176 R0
WINDOW 123 0 0 Left 0
WINDOW 39 0 0 Left 0
SYMATTR InstName B2
SYMATTR Value PULSE(0 5 0 10n 10n 1u 2u)
SYMBOL voltage -528 -352 R0
WINDOW 123 0 0 Left 0
WINDOW 39 0 0 Left 0
SYMATTR InstName A2
SYMATTR Value PULSE(0 5 0 10n 10n 0.5u 1u)
SYMBOL voltage -528 -512 R0
WINDOW 123 0 0 Left 0
WINDOW 39 0 0 Left 0
SYMATTR InstName B3
SYMATTR Value PULSE(0 5 0 10n 10n 1u 2u)
SYMBOL voltage -528 -688 R0
WINDOW 123 0 0 Left 0
WINDOW 39 0 0 Left 0
SYMATTR InstName A3
SYMATTR Value PULSE(0 5 0 10n 10n 0.5u 1u)
TEXT 112 -504 Left 2 !.model NMOS1 nmos level=1\n+ vto=0.7 kp=110e-6 lambda=0.04 uo=600\n+ phi=0.6 gamma=0.4 tox=20e-9 nsub=1e16\n+ cgdo=220e-12 cgso=220e-12 cgbo=100e-12\n+ cj=5e-4 cjsw=3e-10 mj=0.5 mjsw=0.33\n+ is=1e-12 js=1e-8 rsh=50
TEXT 112 -296 Left 2 !.model PMOS1 pmos level=1\n+ vto=-0.7 kp=55e-6 lambda=0.05 uo=300\n+ phi=0.6 gamma=0.4 tox=20e-9 nsub=1e16\n+ cgdo=220e-12 cgso=220e-12 cgbo=100e-12\n+ cj=5e-4 cjsw=3e-10 mj=0.5 mjsw=0.33\n+ is=1e-12 js=1e-8 rsh=100\n+ tpg=-1
TEXT 120 -64 Left 2 !.tran 0.5n 2u
TEXT 104 -600 Left 2 !.options abstol=1e-10 reltol=0.01 vntol=1e-5\n.options gmin=1e-11 itl1=500 itl4=1000 itl5=0\n.options noopiter
