Version 4.1
SHEET 1 1432 680
WIRE 400 -416 400 -464
FLAG -608 -416 0
FLAG -608 -128 0
FLAG -608 0 0
FLAG -608 128 0
FLAG -608 272 0
FLAG -608 416 0
FLAG -608 560 0
FLAG 256 -416 0
FLAG 400 -416 0
FLAG 400 -464 gnd1
FLAG -608 480 A0
FLAG -608 336 A1
FLAG -608 192 A2
FLAG -608 48 A3
FLAG -608 -80 B0
FLAG -608 -208 B1
FLAG -608 -352 B2
FLAG -608 -496 B3
FLAG -608 -272 0
FLAG -48 288 A0
FLAG -48 320 A1
FLAG -48 352 A2
FLAG -48 384 A3
FLAG -48 416 B0
FLAG -48 448 B1
FLAG -48 480 B2
FLAG -48 512 B3
FLAG 192 304 out0
FLAG 192 336 out1
FLAG 192 368 out2
FLAG 192 400 out3
FLAG 192 432 out4
FLAG 192 464 out5
FLAG 192 496 out6
FLAG 192 528 out7
FLAG -48 240 Vdd
FLAG -48 560 gnd1
FLAG 256 -496 Vdd
FLAG 192 560 DZ_f
SYMBOL voltage -608 464 R0
SYMATTR InstName A1
SYMATTR Value PULSE(0 5 40u 1n 1n 40u 80u)
SYMBOL voltage -608 320 R0
SYMATTR InstName A2
SYMATTR Value PULSE(0 5 0u 1n 1n 60u 80u)
SYMBOL voltage -608 176 R0
SYMATTR InstName A3
SYMATTR Value PULSE(0 5 20u 1n 1n 20u 80u)
SYMBOL voltage -608 32 R0
SYMATTR InstName A4
SYMATTR Value PULSE(0 5 20u 1n 1n 20u 80u)
SYMBOL voltage -608 -96 R0
WINDOW 3 24 44 Left 2
WINDOW 123 0 0 Left 0
WINDOW 39 0 0 Left 0
SYMATTR InstName B1
SYMATTR Value 0
SYMBOL voltage -608 -224 R0
WINDOW 3 24 44 Left 2
WINDOW 123 0 0 Left 0
WINDOW 39 0 0 Left 0
SYMATTR InstName B2
SYMATTR Value 0
SYMBOL voltage -608 -368 R0
WINDOW 3 24 44 Left 2
WINDOW 123 0 0 Left 0
WINDOW 39 0 0 Left 0
SYMATTR InstName B3
SYMATTR Value 0
SYMBOL voltage -608 -512 R0
WINDOW 3 24 44 Left 2
WINDOW 123 0 0 Left 0
WINDOW 39 0 0 Left 0
SYMATTR InstName B4
SYMATTR Value 0
SYMBOL voltage 256 -512 R0
SYMATTR InstName Vdd1
SYMATTR Value 5
SYMBOL Modulus 64 400 R0
SYMATTR InstName X1
TEXT 376 -224 Left 2 !.model NMOS1 nmos level=1\n+ vto=0.7 kp=110e-6 lambda=0.04 uo=600\n+ phi=0.6 gamma=0.4 tox=20e-9 nsub=1e16\n+ cgdo=220e-12 cgso=220e-12 cgbo=100e-12\n+ cj=5e-4 cjsw=3e-10 mj=0.5 mjsw=0.33\n+ is=1e-12 js=1e-8 rsh=50
TEXT 368 -16 Left 2 !.model PMOS1 pmos level=1\n+ vto=-0.7 kp=55e-6 lambda=0.05 uo=300\n+ phi=0.6 gamma=0.4 tox=20e-9 nsub=1e16\n+ cgdo=220e-12 cgso=220e-12 cgbo=100e-12\n+ cj=5e-4 cjsw=3e-10 mj=0.5 mjsw=0.33\n+ is=1e-12 js=1e-8 rsh=100\n+ tpg=-1
TEXT 488 200 Left 2 !.tran 0.5n 80u
TEXT 360 -336 Left 2 !.options abstol=1e-10 reltol=0.01 vntol=1e-5\n.options gmin=1e-11 itl1=500 itl4=1000 itl5=0\n.options noopiter
