Version 4.1
SHEET 1 1608 1256
WIRE 864 -320 720 -320
WIRE 1264 -288 928 -288
WIRE 1264 -192 1264 -288
WIRE 1344 -192 1264 -192
WIRE 1344 -160 1056 -160
WIRE 1344 -128 1088 -128
WIRE 1344 -96 1120 -96
WIRE 864 -64 752 -64
WIRE 1056 -32 1056 -160
WIRE 1056 -32 928 -32
WIRE 896 48 896 -208
WIRE 128 64 -208 64
WIRE 128 96 -208 96
WIRE 128 128 -208 128
WIRE -336 160 -368 160
WIRE 128 160 -208 160
WIRE -368 192 -368 160
WIRE -336 192 -368 192
WIRE 128 192 -176 192
WIRE 576 192 256 192
WIRE 720 192 720 -320
WIRE 720 192 704 192
WIRE 864 192 768 192
WIRE 128 224 -144 224
WIRE 576 224 256 224
WIRE 752 224 752 -64
WIRE 752 224 704 224
WIRE 1088 224 1088 -128
WIRE 1088 224 928 224
WIRE 128 256 -112 256
WIRE 576 256 256 256
WIRE 768 256 768 192
WIRE 768 256 704 256
WIRE 128 288 -80 288
WIRE 576 288 256 288
WIRE 768 288 704 288
WIRE 896 304 896 48
WIRE 576 320 464 320
WIRE -176 384 -176 192
WIRE -176 384 -208 384
WIRE -144 416 -144 224
WIRE -144 416 -208 416
WIRE -112 448 -112 256
WIRE -112 448 -208 448
WIRE 768 448 768 288
WIRE 864 448 768 448
WIRE -80 480 -80 288
WIRE -80 480 -208 480
WIRE 1120 480 1120 -96
WIRE 1120 480 928 480
WIRE -368 512 -368 192
WIRE -368 512 -448 512
WIRE -336 512 -368 512
WIRE 896 560 896 304
WIRE -448 592 -448 512
WIRE 464 592 464 320
WIRE 464 592 -448 592
WIRE 896 768 896 560
WIRE 1024 768 896 768
WIRE 624 848 480 848
WIRE 800 864 736 864
WIRE 896 864 896 768
WIRE 624 912 496 912
WIRE 496 1104 496 912
WIRE 496 1104 480 1104
FLAG -640 -496 A0
IOPIN -640 -496 In
FLAG -640 -464 A1
IOPIN -640 -464 In
FLAG -640 -432 A2
IOPIN -640 -432 In
FLAG -640 -400 A3
IOPIN -640 -400 In
FLAG -640 -352 B0
IOPIN -640 -352 In
FLAG -640 -320 B1
IOPIN -640 -320 In
FLAG -640 -288 B2
IOPIN -640 -288 In
FLAG -640 -256 B3
IOPIN -640 -256 In
FLAG -368 -496 out0
IOPIN -368 -496 Out
FLAG -368 -464 out1
IOPIN -368 -464 Out
FLAG -368 -432 out2
IOPIN -368 -432 Out
FLAG -368 -400 out3
IOPIN -368 -400 Out
FLAG -368 -352 out4
IOPIN -368 -352 Out
FLAG -368 -320 out5
IOPIN -368 -320 Out
FLAG -368 -288 out6
IOPIN -368 -288 Out
FLAG -368 -256 out7
IOPIN -368 -256 Out
FLAG -336 64 A0
FLAG -336 96 A1
FLAG -336 128 A2
FLAG -368 192 A3
FLAG -336 384 B0
FLAG -336 416 B1
FLAG -336 448 B2
FLAG -336 480 B3
FLAG -336 224 Vdd
IOPIN -336 224 BiDir
FLAG -336 544 Vdd
IOPIN -336 544 BiDir
FLAG 128 32 Vdd
IOPIN 128 32 BiDir
FLAG 576 352 Vdd
IOPIN 576 352 BiDir
FLAG -336 352 gnd1
IOPIN -336 352 BiDir
FLAG -336 32 gnd1
IOPIN -336 32 BiDir
FLAG 128 320 gnd1
IOPIN 128 320 BiDir
FLAG 576 160 gnd1
IOPIN 576 160 BiDir
FLAG 864 -256 gnd1
IOPIN 864 -256 BiDir
FLAG 864 0 gnd1
IOPIN 864 0 BiDir
FLAG 864 256 gnd1
IOPIN 864 256 BiDir
FLAG 864 512 gnd1
IOPIN 864 512 BiDir
FLAG -368 -224 D_by_zero_f
IOPIN -368 -224 Out
FLAG 800 816 gnd1
IOPIN 800 816 BiDir
FLAG 640 944 Vdd
IOPIN 640 944 BiDir
FLAG 800 928 Vdd
IOPIN 800 928 BiDir
FLAG 624 784 gnd1
IOPIN 624 784 BiDir
FLAG 384 928 Vdd
IOPIN 384 928 BiDir
FLAG 368 768 gnd1
IOPIN 368 768 BiDir
FLAG 384 1184 Vdd
IOPIN 384 1184 BiDir
FLAG 368 1024 gnd1
IOPIN 368 1024 BiDir
FLAG 368 832 B0
FLAG 368 896 B1
FLAG 368 1088 B2
FLAG 368 1152 B3
FLAG 1024 768 D_by_zero_f
FLAG 928 -352 gnd1
IOPIN 928 -352 BiDir
FLAG 928 -96 gnd1
IOPIN 928 -96 BiDir
FLAG 928 160 gnd1
IOPIN 928 160 BiDir
FLAG 928 416 gnd1
IOPIN 928 416 BiDir
FLAG 928 528 Vdd
IOPIN 928 528 BiDir
FLAG 928 272 Vdd
IOPIN 928 272 BiDir
FLAG 928 16 Vdd
IOPIN 928 16 BiDir
FLAG 928 -240 Vdd
IOPIN 928 -240 BiDir
FLAG 1344 32 gnd1
IOPIN 1344 32 BiDir
FLAG 1344 0 gnd1
IOPIN 1344 0 BiDir
FLAG 1344 -32 gnd1
IOPIN 1344 -32 BiDir
FLAG 1344 -64 gnd1
IOPIN 1344 -64 BiDir
FLAG 1344 64 gnd1
IOPIN 1344 64 BiDir
FLAG 1488 -208 gnd1
IOPIN 1488 -208 BiDir
FLAG 1488 80 Vdd
IOPIN 1488 80 BiDir
FLAG 1488 -176 out0
FLAG 1488 -144 out1
FLAG 1488 -112 out2
FLAG 1488 -80 out3
FLAG 1488 -48 out4
FLAG 1488 -16 out5
FLAG 1488 16 out6
FLAG 1488 48 out7
SYMBOL Reminder_b 192 144 R0
SYMATTR InstName X1
SYMBOL sign_mux -272 48 R0
SYMATTR InstName X2
SYMBOL sign_mux -272 368 R0
SYMATTR InstName X3
SYMBOL sign_mux 640 176 R0
SYMATTR InstName X4
SYMBOL MUX21 896 -304 R0
SYMATTR InstName X5
SYMBOL MUX21 896 -48 R0
SYMATTR InstName X6
SYMBOL MUX21 896 208 R0
SYMATTR InstName X7
SYMBOL MUX21 896 464 R0
SYMATTR InstName X8
SYMBOL ORRRRR 672 864 R0
SYMATTR InstName X9
SYMBOL NOT 832 864 R0
SYMATTR InstName X10
SYMBOL ORRRRR 416 848 R0
SYMATTR InstName X11
SYMBOL ORRRRR 416 1104 R0
SYMATTR InstName X12
SYMBOL AddSub 1408 -64 R0
SYMATTR InstName X13
