Version 4.1
SHEET 1 880 680
WIRE 16 64 -16 64
WIRE 320 64 16 64
WIRE 512 80 432 80
WIRE 320 112 288 112
WIRE 16 160 16 64
WIRE 80 160 16 160
WIRE 288 176 288 112
WIRE 288 176 192 176
WIRE 512 176 512 80
WIRE 576 176 512 176
WIRE 80 208 16 208
WIRE 576 224 512 224
WIRE 288 304 288 176
WIRE 320 304 288 304
WIRE 512 320 512 224
WIRE 512 320 432 320
WIRE 16 352 16 208
WIRE 16 352 -16 352
WIRE 320 352 16 352
FLAG -16 64 A
IOPIN -16 64 In
FLAG -16 352 B
IOPIN -16 352 In
FLAG 176 144 Vdd
IOPIN 176 144 BiDir
FLAG 176 224 gnd1
IOPIN 176 224 BiDir
FLAG 416 288 Vdd
IOPIN 416 288 BiDir
FLAG 416 368 gnd1
IOPIN 416 368 BiDir
FLAG 416 128 gnd1
IOPIN 416 128 BiDir
FLAG 416 48 Vdd
IOPIN 416 48 BiDir
FLAG 672 160 Vdd
IOPIN 672 160 BiDir
FLAG 672 240 gnd1
IOPIN 672 240 BiDir
FLAG 688 192 out
IOPIN 688 192 Out
SYMBOL NAND 128 192 R0
SYMATTR InstName X1
SYMBOL NAND 368 336 R0
SYMATTR InstName X2
SYMBOL NAND 368 96 R0
SYMATTR InstName X3
SYMBOL NAND 624 208 R0
SYMATTR InstName X4
