Version 4.1
SHEET 1 884 680
WIRE -304 32 -304 16
WIRE -176 64 -176 48
WIRE -48 64 -48 0
WIRE -304 128 -304 112
WIRE -304 304 -304 288
FLAG -176 64 0
FLAG -304 128 0
FLAG -304 304 0
FLAG -176 -32 vdd
FLAG -304 16 A
FLAG -304 208 B
FLAG -48 64 0
FLAG -48 0 gnd1
FLAG 192 128 vdd
FLAG 208 160 Out
FLAG 192 208 gnd1
FLAG 96 144 A
FLAG 96 192 B
SYMBOL NAND 144 176 R0
WINDOW 0 8 -56 Bottom 2
SYMATTR InstName X1
SYMBOL voltage -304 192 R0
WINDOW 123 0 0 Left 0
WINDOW 39 0 0 Left 0
SYMATTR InstName B
SYMATTR Value PULSE(0 5 0 0 0 1u 2u)
SYMBOL voltage -304 16 R0
WINDOW 123 0 0 Left 0
WINDOW 39 0 0 Left 0
SYMATTR InstName A
SYMATTR Value PULSE(0 5 0 0 0 0.5u 1u)
SYMBOL voltage -176 -48 R0
SYMATTR InstName vdd
SYMATTR Value 5
TEXT 328 24 Left 2 !.model NMOS1 nmos level=1\n+ vto=0.7 kp=120u lambda=0.02 UO=650\n+ phi=0.7 gamma=0.0 tox=2e-8\n+ CGDO=200e-12 CGSO=200e-12 CGBO=1e-10\n+ CJ=400e-6 CJSW=300e-12\n+ NSUB=1e17\n+ IS=1e-14
TEXT 328 232 Left 2 !.model PMOS1 pmos level=1\n+ vto=-0.7 kp=60u lambda=0.02 UO=325\n+ phi=0.7 gamma=0.0 tox=2e-8\n+ CGDO=200e-12 CGSO=200e-12 CGBO=1e-10\n+ CJ=400e-6 CJSW=300e-12\n+ NSUB=1e17\n+ IS=1e-14\n+ TPG=-1
TEXT 112 312 Left 2 !.tran 2u
