Version 4.1
SHEET 1 1096 680
WIRE 272 -320 192 -320
WIRE 272 -288 192 -288
WIRE 272 -256 192 -256
WIRE 272 -224 192 -224
WIRE 272 -192 192 -192
WIRE 272 -160 192 -160
WIRE 272 -128 192 -128
WIRE 272 -96 192 -96
WIRE 272 -64 192 -64
WIRE 272 -32 192 -32
WIRE 272 0 192 0
WIRE 448 272 448 224
FLAG -624 -464 0
FLAG -624 -176 0
FLAG -624 -48 0
FLAG -624 80 0
FLAG -624 224 0
FLAG -624 368 0
FLAG -624 512 0
FLAG 304 272 0
FLAG 448 272 0
FLAG 448 224 gnd1
FLAG -624 432 A0
FLAG -624 288 A1
FLAG -624 144 A2
FLAG -624 0 A3
FLAG -624 -128 B0
FLAG -624 -256 B1
FLAG -624 -400 B2
FLAG -624 -544 B3
FLAG -624 -320 0
FLAG 304 192 Vdd
FLAG -80 -320 A0
FLAG -80 -288 A1
FLAG -80 -256 A2
FLAG -80 -224 A3
FLAG -80 -192 B0
FLAG -80 -160 B1
FLAG -80 -128 B2
FLAG -80 -96 B3
FLAG -80 -352 Vdd
FLAG -80 32 gnd1
FLAG 192 -320 out0
FLAG 192 -288 out1
FLAG 192 -256 out2
FLAG 192 -224 out3
FLAG 192 -192 out4
FLAG 192 -160 out5
FLAG 192 -128 out6
FLAG 192 -96 out7
FLAG -80 -64 Sel0
FLAG -80 -32 Sel1
FLAG -80 0 Sel2
FLAG 192 -64 Sign_F
FLAG 192 -32 Zero_F
FLAG 192 0 DZ_F
FLAG 192 272 0
FLAG 192 192 Sel0
FLAG 96 272 0
FLAG 96 192 Sel1
FLAG 0 272 0
FLAG 0 192 Sel2
FLAG 336 -320 0
FLAG 336 -288 0
FLAG 336 -256 0
FLAG 336 -224 0
FLAG 336 -192 0
FLAG 336 -160 0
FLAG 336 -128 0
FLAG 336 -96 0
FLAG 336 -64 0
FLAG 336 -32 0
FLAG 336 0 0
SYMBOL voltage -624 416 R0
WINDOW 123 0 0 Left 0
WINDOW 39 0 0 Left 0
SYMATTR InstName A1
SYMATTR Value PULSE(0 5 0 10n 10n 256u 512u)
SYMBOL voltage -624 272 R0
WINDOW 123 0 0 Left 0
WINDOW 39 0 0 Left 0
SYMATTR InstName A2
SYMATTR Value PULSE(0 5 0 10n 10n 128u 256u)
SYMBOL voltage -624 128 R0
WINDOW 123 0 0 Left 0
WINDOW 39 0 0 Left 0
SYMATTR InstName A3
SYMATTR Value PULSE(0 5 0 10n 10n 64u 128u)
SYMBOL voltage -624 -16 R0
WINDOW 123 0 0 Left 0
WINDOW 39 0 0 Left 0
SYMATTR InstName A4
SYMATTR Value PULSE(0 5 0 10n 10n 32u 64u)
SYMBOL voltage -624 -144 R0
WINDOW 3 24 44 Left 2
WINDOW 123 0 0 Left 0
WINDOW 39 0 0 Left 0
SYMATTR Value PULSE(0 5 0 10n 10n 16u 32u)
SYMATTR InstName B1
SYMBOL voltage -624 -272 R0
WINDOW 3 24 44 Left 2
WINDOW 123 0 0 Left 0
WINDOW 39 0 0 Left 0
SYMATTR Value PULSE(0 5 0 10n 10n 8u 16u)
SYMATTR InstName B2
SYMBOL voltage -624 -416 R0
WINDOW 3 24 44 Left 2
WINDOW 123 0 0 Left 0
WINDOW 39 0 0 Left 0
SYMATTR Value PULSE(0 5 0 10n 10n 4u 8u)
SYMATTR InstName B3
SYMBOL voltage -624 -560 R0
WINDOW 3 24 44 Left 2
WINDOW 123 0 0 Left 0
WINDOW 39 0 0 Left 0
SYMATTR Value PULSE(0 5 0 10n 10n 2u 4u)
SYMATTR InstName B4
SYMBOL voltage 304 176 R0
SYMATTR InstName Vdd1
SYMATTR Value 5
SYMBOL ALU1 48 -160 R0
SYMATTR InstName X1
SYMBOL voltage 192 176 R0
WINDOW 123 0 0 Left 0
WINDOW 39 0 0 Left 0
SYMATTR InstName V1
SYMATTR Value 0
SYMBOL voltage 96 176 R0
WINDOW 123 0 0 Left 0
WINDOW 39 0 0 Left 0
SYMATTR InstName V2
SYMATTR Value 0
SYMBOL voltage 0 176 R0
WINDOW 123 0 0 Left 0
WINDOW 39 0 0 Left 0
SYMATTR InstName V3
SYMATTR Value 5
SYMBOL cap 336 -336 R90
WINDOW 0 0 32 VBottom 2
WINDOW 3 -19 70 VTop 2
SYMATTR InstName C1
SYMATTR Value 10p
SYMBOL cap 336 -304 R90
WINDOW 0 10 63 VBottom 2
WINDOW 3 32 32 VTop 2
SYMATTR InstName C2
SYMATTR Value 10p
SYMBOL cap 336 -272 R90
WINDOW 0 5 53 VBottom 2
WINDOW 3 32 32 VTop 2
SYMATTR InstName C3
SYMATTR Value 10p
SYMBOL cap 336 -240 R90
WINDOW 0 0 32 VBottom 2
WINDOW 3 32 32 VTop 2
SYMATTR InstName C4
SYMATTR Value 10p
SYMBOL cap 336 -208 R90
WINDOW 0 0 32 VBottom 2
WINDOW 3 32 32 VTop 2
SYMATTR InstName C5
SYMATTR Value 10p
SYMBOL cap 336 -176 R90
WINDOW 0 0 32 VBottom 2
WINDOW 3 32 32 VTop 2
SYMATTR InstName C6
SYMATTR Value 10p
SYMBOL cap 336 -144 R90
WINDOW 0 0 32 VBottom 2
WINDOW 3 32 32 VTop 2
SYMATTR InstName C7
SYMATTR Value 10p
SYMBOL cap 336 -112 R90
WINDOW 0 0 32 VBottom 2
WINDOW 3 32 32 VTop 2
SYMATTR InstName C8
SYMATTR Value 10p
SYMBOL cap 336 -80 R90
WINDOW 0 0 32 VBottom 2
WINDOW 3 32 32 VTop 2
SYMATTR InstName C9
SYMATTR Value 10p
SYMBOL cap 336 -48 R90
WINDOW 0 0 32 VBottom 2
WINDOW 3 32 32 VTop 2
SYMATTR InstName C10
SYMATTR Value 10p
SYMBOL cap 336 -16 R90
WINDOW 0 0 32 VBottom 2
WINDOW 3 32 32 VTop 2
SYMATTR InstName C11
SYMATTR Value 10p
TEXT 368 96 Left 2 !.tran 512u
TEXT 360 -360 Left 2 !.options abstol=1e-10 reltol=0.01 vntol=1e-5\n.options gmin=1e-11 itl1=500 itl4=1000 itl5=0\n.options noopiter
TEXT 544 -208 Left 2 !.model NMOS1 nmos level=1\n+ vto=0.7 kp=110e-6 lambda=0.04 uo=600\n+ phi=0.6 gamma=0.4 tox=20e-9 nsub=1e16\n+ cgdo=220e-12 cgso=220e-12 cgbo=100e-12\n+ cj=5e-4 cjsw=3e-10 mj=0.5 mjsw=0.33\n+ is=1e-12 js=1e-8 rsh=50
TEXT 536 0 Left 2 !.model PMOS1 pmos level=1\n+ vto=-0.7 kp=55e-6 lambda=0.05 uo=300\n+ phi=0.6 gamma=0.4 tox=20e-9 nsub=1e16\n+ cgdo=220e-12 cgso=220e-12 cgbo=100e-12\n+ cj=5e-4 cjsw=3e-10 mj=0.5 mjsw=0.33\n+ is=1e-12 js=1e-8 rsh=100\n+ tpg=-1
