Version 4.1
SHEET 1 1108 680
WIRE 304 -320 192 -320
WIRE 304 -288 192 -288
WIRE 304 -256 192 -256
WIRE 304 -224 192 -224
WIRE 304 -192 192 -192
WIRE 304 -160 192 -160
WIRE 304 -128 192 -128
WIRE 304 -96 192 -96
WIRE 304 -64 192 -64
WIRE 304 -32 192 -32
WIRE 304 0 192 0
WIRE 448 272 448 224
FLAG 304 272 0
FLAG 448 272 0
FLAG 448 224 gnd1
FLAG 304 192 Vdd
FLAG -80 -320 A0
FLAG -80 -288 A1
FLAG -80 -256 A2
FLAG -80 -224 A3
FLAG -80 -192 B0
FLAG -80 -160 B1
FLAG -80 -128 B2
FLAG -80 -96 B3
FLAG -80 -352 Vdd
FLAG -80 32 gnd1
FLAG 192 -320 out0
FLAG 192 -288 out1
FLAG 192 -256 out2
FLAG 192 -224 out3
FLAG 192 -192 out4
FLAG 192 -160 out5
FLAG 192 -128 out6
FLAG 192 -96 out7
FLAG -80 -64 Sel0
FLAG -80 -32 Sel1
FLAG -80 0 Sel2
FLAG 192 -64 Sign_F
FLAG 192 -32 Zero_F
FLAG 192 0 DZ_F
FLAG 192 272 0
FLAG 192 192 Sel0
FLAG 96 272 0
FLAG 96 192 Sel1
FLAG 0 272 0
FLAG 0 192 Sel2
FLAG 368 -320 0
FLAG 368 -288 0
FLAG 368 -256 0
FLAG 368 -224 0
FLAG 368 -192 0
FLAG 368 -160 0
FLAG 368 -128 0
FLAG 368 -96 0
FLAG 368 -64 0
FLAG 368 -32 0
FLAG 368 0 0
FLAG -512 -560 0
FLAG -512 -272 0
FLAG -512 -144 0
FLAG -512 -16 0
FLAG -512 128 0
FLAG -512 272 0
FLAG -512 416 0
FLAG -512 336 A0
FLAG -512 192 A1
FLAG -512 48 A2
FLAG -512 -96 A3
FLAG -512 -224 B0
FLAG -512 -352 B1
FLAG -512 -496 B2
FLAG -512 -640 B3
FLAG -512 -416 0
SYMBOL voltage 304 176 R0
SYMATTR InstName Vdd1
SYMATTR Value 5
SYMBOL ALU1 48 -160 R0
SYMATTR InstName X1
SYMBOL voltage 192 176 R0
WINDOW 123 0 0 Left 0
WINDOW 39 0 0 Left 0
SYMATTR InstName V1
SYMATTR Value 0
SYMBOL voltage 96 176 R0
WINDOW 123 0 0 Left 0
WINDOW 39 0 0 Left 0
SYMATTR InstName V2
SYMATTR Value 0
SYMBOL voltage 0 176 R0
WINDOW 123 0 0 Left 0
WINDOW 39 0 0 Left 0
SYMATTR InstName V3
SYMATTR Value 5
SYMBOL cap 368 -336 R90
WINDOW 0 0 32 VBottom 2
WINDOW 3 -19 70 VTop 2
SYMATTR InstName C1
SYMATTR Value 10p
SYMBOL cap 368 -304 R90
WINDOW 0 10 63 VBottom 2
WINDOW 3 32 32 VTop 2
SYMATTR InstName C2
SYMATTR Value 10p
SYMBOL cap 368 -272 R90
WINDOW 0 5 53 VBottom 2
WINDOW 3 32 32 VTop 2
SYMATTR InstName C3
SYMATTR Value 10p
SYMBOL cap 368 -240 R90
WINDOW 0 0 32 VBottom 2
WINDOW 3 32 32 VTop 2
SYMATTR InstName C4
SYMATTR Value 10p
SYMBOL cap 368 -208 R90
WINDOW 0 0 32 VBottom 2
WINDOW 3 32 32 VTop 2
SYMATTR InstName C5
SYMATTR Value 10p
SYMBOL cap 368 -176 R90
WINDOW 0 0 32 VBottom 2
WINDOW 3 32 32 VTop 2
SYMATTR InstName C6
SYMATTR Value 10p
SYMBOL cap 368 -144 R90
WINDOW 0 0 32 VBottom 2
WINDOW 3 32 32 VTop 2
SYMATTR InstName C7
SYMATTR Value 10p
SYMBOL cap 368 -112 R90
WINDOW 0 0 32 VBottom 2
WINDOW 3 32 32 VTop 2
SYMATTR InstName C8
SYMATTR Value 10p
SYMBOL cap 368 -80 R90
WINDOW 0 0 32 VBottom 2
WINDOW 3 32 32 VTop 2
SYMATTR InstName C9
SYMATTR Value 10p
SYMBOL cap 368 -48 R90
WINDOW 0 0 32 VBottom 2
WINDOW 3 32 32 VTop 2
SYMATTR InstName C10
SYMATTR Value 10p
SYMBOL cap 368 -16 R90
WINDOW 0 0 32 VBottom 2
WINDOW 3 32 32 VTop 2
SYMATTR InstName C11
SYMATTR Value 10p
SYMBOL voltage -512 320 R0
WINDOW 123 0 0 Left 0
WINDOW 39 0 0 Left 0
SYMATTR InstName A5
SYMATTR Value PULSE(0 5 0 10n 10n 256u 512u)
SYMBOL voltage -512 176 R0
WINDOW 123 0 0 Left 0
WINDOW 39 0 0 Left 0
SYMATTR InstName A6
SYMATTR Value PULSE(0 5 0 10n 10n 128u 256u)
SYMBOL voltage -512 32 R0
WINDOW 123 0 0 Left 0
WINDOW 39 0 0 Left 0
SYMATTR InstName A7
SYMATTR Value PULSE(0 5 0 10n 10n 64u 128u)
SYMBOL voltage -512 -112 R0
WINDOW 123 0 0 Left 0
WINDOW 39 0 0 Left 0
SYMATTR InstName A8
SYMATTR Value PULSE(0 5 0 10n 10n 32u 64u)
SYMBOL voltage -512 -240 R0
WINDOW 3 24 44 Left 2
WINDOW 123 0 0 Left 0
WINDOW 39 0 0 Left 0
SYMATTR Value PULSE(0 5 0 10n 10n 16u 32u)
SYMATTR InstName B5
SYMBOL voltage -512 -368 R0
WINDOW 3 24 44 Left 2
WINDOW 123 0 0 Left 0
WINDOW 39 0 0 Left 0
SYMATTR Value PULSE(0 5 0 10n 10n 8u 16u)
SYMATTR InstName B6
SYMBOL voltage -512 -512 R0
WINDOW 3 24 44 Left 2
WINDOW 123 0 0 Left 0
WINDOW 39 0 0 Left 0
SYMATTR Value PULSE(0 5 0 10n 10n 4u 8u)
SYMATTR InstName B7
SYMBOL voltage -512 -656 R0
WINDOW 3 24 44 Left 2
WINDOW 123 0 0 Left 0
WINDOW 39 0 0 Left 0
SYMATTR Value PULSE(0 5 0 10n 10n 2u 4u)
SYMATTR InstName B8
TEXT 368 96 Left 2 !.tran 512u
TEXT 552 -328 Left 2 !.options abstol=1e-10 reltol=0.01 vntol=1e-5\n.options gmin=1e-11 itl1=500 itl4=1000 itl5=0\n.options noopiter
TEXT 544 -208 Left 2 !.model NMOS1 nmos level=1\n+ vto=0.7 kp=110e-6 lambda=0.04 uo=600\n+ phi=0.6 gamma=0.4 tox=20e-9 nsub=1e16\n+ cgdo=220e-12 cgso=220e-12 cgbo=100e-12\n+ cj=5e-4 cjsw=3e-10 mj=0.5 mjsw=0.33\n+ is=1e-12 js=1e-8 rsh=50
TEXT 536 0 Left 2 !.model PMOS1 pmos level=1\n+ vto=-0.7 kp=55e-6 lambda=0.05 uo=300\n+ phi=0.6 gamma=0.4 tox=20e-9 nsub=1e16\n+ cgdo=220e-12 cgso=220e-12 cgbo=100e-12\n+ cj=5e-4 cjsw=3e-10 mj=0.5 mjsw=0.33\n+ is=1e-12 js=1e-8 rsh=100\n+ tpg=-1
