Version 4.1
SHEET 1 1188 1624
WIRE -224 -512 -224 -624
WIRE 192 -512 -224 -512
WIRE 464 -512 368 -512
WIRE 592 -512 560 -512
WIRE -224 -480 -224 -512
WIRE 192 -480 -224 -480
WIRE 368 -464 368 -512
WIRE 368 -464 288 -464
WIRE -224 -448 -224 -480
WIRE 192 -448 -224 -448
WIRE -224 -416 -224 -448
WIRE 192 -416 -224 -416
WIRE 368 -352 368 -464
WIRE 464 -352 368 -352
WIRE 592 -352 560 -352
WIRE -112 -208 -112 -624
WIRE 192 -208 -112 -208
WIRE 368 -192 368 -352
WIRE 464 -192 368 -192
WIRE 592 -192 560 -192
WIRE -224 -176 -224 -416
WIRE 192 -176 -224 -176
WIRE -224 -144 -224 -176
WIRE 192 -144 -224 -144
WIRE -224 -112 -224 -144
WIRE 192 -112 -224 -112
WIRE 368 -32 368 -192
WIRE 464 -32 368 -32
WIRE 592 -32 560 -32
WIRE -16 96 -16 -624
WIRE 192 96 -16 96
WIRE -112 128 -112 -208
WIRE 192 128 -112 128
WIRE -224 160 -224 -112
WIRE 192 160 -224 160
WIRE 368 160 368 -32
WIRE 464 160 368 160
WIRE 592 160 560 160
WIRE -224 192 -224 160
WIRE 192 192 -224 192
WIRE 80 416 80 -624
WIRE 192 416 80 416
WIRE -16 448 -16 96
WIRE 192 448 -16 448
WIRE -112 480 -112 128
WIRE 192 480 -112 480
WIRE -224 512 -224 192
WIRE 192 512 -224 512
WIRE 224 656 -528 656
WIRE -528 720 -528 656
WIRE 224 736 224 656
WIRE 320 736 224 736
WIRE 160 784 -224 784
WIRE 160 800 160 784
WIRE 320 800 160 800
WIRE -624 816 -624 720
WIRE -336 816 -624 816
WIRE -224 832 -224 784
WIRE -736 880 -736 720
WIRE -336 880 -736 880
WIRE -224 1040 -224 832
WIRE 240 1040 -224 1040
WIRE 240 1056 240 1040
WIRE 320 1056 240 1056
WIRE 320 1120 272 1120
WIRE -432 1136 -432 720
WIRE 272 1136 272 1120
WIRE 272 1136 -432 1136
FLAG 816 -112 out1
IOPIN 816 -112 Out
FLAG 816 -64 out0
IOPIN 816 -64 Out
FLAG 816 -208 out3
IOPIN 816 -208 Out
FLAG 816 -160 out2
IOPIN 816 -160 Out
FLAG 816 -304 out5
IOPIN 816 -304 Out
FLAG 816 -256 out4
IOPIN 816 -256 Out
FLAG 816 -400 out7
IOPIN 816 -400 Out
FLAG 816 -352 out6
IOPIN 816 -352 Out
FLAG 80 -624 A0
IOPIN 80 -624 In
FLAG -16 -624 A1
IOPIN -16 -624 In
FLAG -112 -624 A2
IOPIN -112 -624 In
FLAG -224 -624 A3
IOPIN -224 -624 In
FLAG -432 720 B0
IOPIN -432 720 In
FLAG -528 720 B1
IOPIN -528 720 In
FLAG -624 720 B2
IOPIN -624 720 In
FLAG -736 720 B3
IOPIN -736 720 In
FLAG 256 -576 Vdd
IOPIN 256 -576 BiDir
FLAG 256 -272 Vdd
IOPIN 256 -272 BiDir
FLAG 256 32 Vdd
IOPIN 256 32 BiDir
FLAG 256 352 Vdd
IOPIN 256 352 BiDir
FLAG -320 912 Vdd
IOPIN -320 912 BiDir
FLAG 192 -400 gnd1
IOPIN 192 -400 BiDir
FLAG 192 -96 gnd1
IOPIN 192 -96 BiDir
FLAG 192 208 gnd1
IOPIN 192 208 BiDir
FLAG 192 528 gnd1
IOPIN 192 528 BiDir
FLAG -336 752 gnd1
IOPIN -336 752 BiDir
FLAG 336 832 Vdd
IOPIN 336 832 BiDir
FLAG 320 672 gnd1
IOPIN 320 672 BiDir
FLAG 336 1152 Vdd
IOPIN 336 1152 BiDir
FLAG 320 992 gnd1
IOPIN 320 992 BiDir
FLAG 432 1072 S0
FLAG 224 576 S1
FLAG 224 256 S1
FLAG 224 -48 S1
FLAG 224 -352 S1
FLAG 256 -368 S0
FLAG 256 -64 S0
FLAG 256 240 S0
FLAG 256 560 S0
FLAG 432 752 S1
FLAG 288 144 out1
FLAG 288 464 out0
FLAG 288 -160 out2
FLAG 688 -512 out3
FLAG 688 -352 out4
FLAG 688 -192 out5
FLAG 688 -32 out6
FLAG 688 160 out7
FLAG 592 -560 gnd1
IOPIN 592 -560 BiDir
FLAG 464 -560 gnd1
IOPIN 464 -560 BiDir
FLAG 464 -400 gnd1
IOPIN 464 -400 BiDir
FLAG 592 -400 gnd1
IOPIN 592 -400 BiDir
FLAG 592 -240 gnd1
IOPIN 592 -240 BiDir
FLAG 464 -240 gnd1
IOPIN 464 -240 BiDir
FLAG 464 -80 gnd1
IOPIN 464 -80 BiDir
FLAG 592 -80 gnd1
IOPIN 592 -80 BiDir
FLAG 592 112 gnd1
IOPIN 592 112 BiDir
FLAG 464 112 gnd1
IOPIN 464 112 BiDir
FLAG 464 224 Vdd
IOPIN 464 224 BiDir
FLAG 592 224 Vdd
IOPIN 592 224 BiDir
FLAG 592 32 Vdd
IOPIN 592 32 BiDir
FLAG 464 32 Vdd
IOPIN 464 32 BiDir
FLAG 464 -128 Vdd
IOPIN 464 -128 BiDir
FLAG 592 -128 Vdd
IOPIN 592 -128 BiDir
FLAG 592 -288 Vdd
IOPIN 592 -288 BiDir
FLAG 464 -288 Vdd
IOPIN 464 -288 BiDir
FLAG 464 -448 Vdd
IOPIN 464 -448 BiDir
FLAG 592 -448 Vdd
IOPIN 592 -448 BiDir
SYMBOL mux41 240 144 R0
SYMATTR InstName X1
SYMBOL mux41 240 464 R0
SYMATTR InstName X2
SYMBOL mux41 240 -160 R0
SYMATTR InstName X3
SYMBOL mux41 240 -464 R0
SYMATTR InstName X4
SYMBOL ORRRRR -288 832 R0
SYMATTR InstName X5
SYMBOL ORRRRR 368 752 R0
SYMATTR InstName X7
SYMBOL ORRRRR 368 1072 R0
SYMATTR InstName X10
SYMBOL NOT 496 -512 R0
SYMATTR InstName X6
SYMBOL NOT 496 -352 R0
SYMATTR InstName X8
SYMBOL NOT 496 -192 R0
SYMATTR InstName X9
SYMBOL NOT 496 -32 R0
SYMATTR InstName X11
SYMBOL NOT 624 -512 R0
SYMATTR InstName X12
SYMBOL NOT 496 160 R0
SYMATTR InstName X16
SYMBOL NOT1 624 -352 R0
SYMATTR InstName X13
SYMBOL NOT1 624 -192 R0
SYMATTR InstName X14
SYMBOL NOT1 624 -32 R0
SYMATTR InstName X15
SYMBOL NOT1 624 160 R0
SYMATTR InstName X17
