Version 4.1
SHEET 1 964 680
WIRE -272 -720 -272 -736
WIRE -144 -720 -144 -784
WIRE 16 32 -96 32
WIRE 16 64 -96 64
WIRE 16 96 -96 96
WIRE 16 128 -96 128
WIRE 16 160 -96 160
WIRE 16 192 -96 192
WIRE 16 224 -96 224
WIRE 16 256 -96 256
FLAG -272 -720 0
FLAG -272 -816 vdd
FLAG -144 -720 0
FLAG -144 -784 gnd1
FLAG -224 -32 gnd1
FLAG -224 256 vdd
FLAG -224 0 A0
FLAG -224 32 A1
FLAG -224 64 A2
FLAG -224 96 A3
FLAG -224 128 B0
FLAG -224 160 B1
FLAG -224 192 B2
FLAG -224 224 B3
FLAG -96 32 out0
FLAG -96 64 out1
FLAG -96 96 out2
FLAG -96 128 out3
FLAG -96 160 out4
FLAG -96 192 out5
FLAG -96 224 out6
FLAG -96 256 out7
FLAG -416 -800 0
FLAG -416 -512 0
FLAG -416 -384 0
FLAG -416 -256 0
FLAG -416 -112 0
FLAG -416 32 0
FLAG -416 176 0
FLAG -416 96 A0
FLAG -416 -48 A1
FLAG -416 -192 A2
FLAG -416 -336 A3
FLAG -416 -464 B0
FLAG -416 -592 B1
FLAG -416 -736 B2
FLAG -416 -880 B3
FLAG -416 -656 0
FLAG 80 32 0
FLAG 80 64 0
FLAG 80 96 0
FLAG 80 128 0
FLAG 80 160 0
FLAG 80 192 0
FLAG 80 224 0
FLAG 80 256 0
SYMBOL ASR1 -160 64 R0
SYMATTR InstName X1
SYMBOL voltage -272 -832 R0
SYMATTR InstName vdd1
SYMATTR Value 5
SYMBOL voltage -416 80 R0
WINDOW 123 0 0 Left 0
WINDOW 39 0 0 Left 0
SYMATTR InstName A1
SYMATTR Value 5
SYMBOL voltage -416 -64 R0
WINDOW 123 0 0 Left 0
WINDOW 39 0 0 Left 0
SYMATTR InstName A2
SYMATTR Value 5
SYMBOL voltage -416 -208 R0
WINDOW 123 0 0 Left 0
WINDOW 39 0 0 Left 0
SYMATTR InstName A3
SYMATTR Value 5
SYMBOL voltage -416 -352 R0
WINDOW 123 0 0 Left 0
WINDOW 39 0 0 Left 0
SYMATTR InstName A4
SYMATTR Value 5
SYMBOL voltage -416 -480 R0
WINDOW 3 24 44 Left 2
WINDOW 123 0 0 Left 0
WINDOW 39 0 0 Left 0
SYMATTR Value 5
SYMATTR InstName B1
SYMBOL voltage -416 -608 R0
WINDOW 3 24 44 Left 2
WINDOW 123 0 0 Left 0
WINDOW 39 0 0 Left 0
SYMATTR Value 5
SYMATTR InstName B2
SYMBOL voltage -416 -752 R0
WINDOW 3 24 44 Left 2
WINDOW 123 0 0 Left 0
WINDOW 39 0 0 Left 0
SYMATTR Value 5
SYMATTR InstName B3
SYMBOL voltage -416 -896 R0
WINDOW 3 24 44 Left 2
WINDOW 123 0 0 Left 0
WINDOW 39 0 0 Left 0
SYMATTR Value 5
SYMATTR InstName B4
SYMBOL cap 80 16 R90
WINDOW 0 0 32 VBottom 2
WINDOW 3 -19 70 VTop 2
SYMATTR InstName C1
SYMATTR Value 10p
SYMBOL cap 80 48 R90
WINDOW 0 10 63 VBottom 2
WINDOW 3 32 32 VTop 2
SYMATTR InstName C2
SYMATTR Value 10p
SYMBOL cap 80 80 R90
WINDOW 0 5 53 VBottom 2
WINDOW 3 32 32 VTop 2
SYMATTR InstName C3
SYMATTR Value 10p
SYMBOL cap 80 112 R90
WINDOW 0 0 32 VBottom 2
WINDOW 3 32 32 VTop 2
SYMATTR InstName C4
SYMATTR Value 10p
SYMBOL cap 80 144 R90
WINDOW 0 0 32 VBottom 2
WINDOW 3 32 32 VTop 2
SYMATTR InstName C5
SYMATTR Value 10p
SYMBOL cap 80 176 R90
WINDOW 0 0 32 VBottom 2
WINDOW 3 32 32 VTop 2
SYMATTR InstName C6
SYMATTR Value 10p
SYMBOL cap 80 208 R90
WINDOW 0 0 32 VBottom 2
WINDOW 3 32 32 VTop 2
SYMATTR InstName C7
SYMATTR Value 10p
SYMBOL cap 80 240 R90
WINDOW 0 0 32 VBottom 2
WINDOW 3 32 32 VTop 2
SYMATTR InstName C8
SYMATTR Value 10p
TEXT -296 -616 Left 2 !.model NMOS1 nmos level=1\n+ vto=0.7 kp=120u lambda=0.02 UO=650\n+ phi=0.7 gamma=0.0 tox=2e-8\n+ CGDO=200e-12 CGSO=200e-12 CGBO=1e-10\n+ CJ=400e-6 CJSW=300e-12\n+ NSUB=1e17\n+ IS=1e-14
TEXT -296 -408 Left 2 !.model PMOS1 pmos level=1\n+ vto=-0.7 kp=60u lambda=0.02 UO=325\n+ phi=0.7 gamma=0.0 tox=2e-8\n+ CGDO=200e-12 CGSO=200e-12 CGBO=1e-10\n+ CJ=400e-6 CJSW=300e-12\n+ NSUB=1e17\n+ IS=1e-14\n+ TPG=-1
TEXT -160 -192 Left 2 !.tran 16µs
