Version 4.1
SHEET 1 880 680
WIRE 496 -16 416 -16
WIRE 416 128 416 -16
WIRE 416 128 400 128
WIRE 496 128 416 128
WIRE 400 160 400 128
WIRE 400 160 336 160
FLAG 96 -208 A
IOPIN 96 -208 In
FLAG 96 -176 B
IOPIN 96 -176 In
FLAG 96 -144 Cin
IOPIN 96 -144 In
FLAG 96 -112 N
IOPIN 96 -112 In
FLAG 208 -208 D
IOPIN 208 -208 Out
FLAG 208 -176 Cout
IOPIN 208 -176 Out
FLAG 208 -144 R
IOPIN 208 -144 Out
FLAG 192 96 A
FLAG 192 128 B
FLAG 496 192 A
FLAG 496 -16 D
FLAG 528 240 N
FLAG 192 160 Cin
FLAG 336 192 Cout
FLAG 560 160 R
FLAG 192 64 Vdd
IOPIN 192 64 BiDir
FLAG 560 208 Vdd
IOPIN 560 208 BiDir
FLAG 560 96 gnd1
IOPIN 560 96 BiDir
FLAG 192 192 gnd1
IOPIN 192 192 BiDir
SYMBOL full_adder 256 128 R0
SYMATTR InstName X1
SYMBOL MUX21 528 144 R0
SYMATTR InstName X2
