Version 4.1
SHEET 1 884 680
WIRE -96 128 -96 80
FLAG -96 288 0
FLAG -96 -32 0
FLAG 48 416 0
FLAG -96 128 0
FLAG -96 80 gnd1
FLAG -96 208 Vdd
FLAG 48 336 A
FLAG -96 -112 B
FLAG 128 176 A
FLAG 128 208 B
FLAG 240 160 gnd1
FLAG 240 192 out
FLAG 224 224 Vdd
SYMBOL ANDDDDD 176 192 R0
SYMATTR InstName X1
SYMBOL voltage 48 320 R0
WINDOW 123 0 0 Left 0
WINDOW 39 0 0 Left 0
SYMATTR InstName A
SYMATTR Value PULSE(0 5 0 0 0 1u 2u)
SYMBOL voltage -96 192 R0
SYMATTR InstName Vdd
SYMATTR Value 5
SYMBOL voltage -96 -128 R0
WINDOW 123 0 0 Left 0
WINDOW 39 0 0 Left 0
SYMATTR InstName B
SYMATTR Value PULSE(0 5 0 0 0 1u 2u)
TEXT 320 -32 Left 2 !.model NMOS1 nmos level=1\n+ vto=0.7 kp=120u lambda=0.02 UO=650\n+ phi=0.7 gamma=0.0 tox=2e-8\n+ CGDO=200e-12 CGSO=200e-12 CGBO=1e-10\n+ CJ=400e-6 CJSW=300e-12\n+ NSUB=1e17\n+ IS=1e-14
TEXT 328 192 Left 2 !.model PMOS1 pmos level=1\n+ vto=-0.7 kp=60u lambda=0.02 UO=325\n+ phi=0.7 gamma=0.0 tox=2e-8\n+ CGDO=200e-12 CGSO=200e-12 CGBO=1e-10\n+ CJ=400e-6 CJSW=300e-12\n+ NSUB=1e17\n+ IS=1e-14\n+ TPG=-1
TEXT 144 40 Left 2 !.tran 2u
