Version 4.1
SHEET 1 880 680
WIRE 240 -16 176 -16
WIRE 240 96 240 -16
WIRE 368 96 240 96
WIRE 368 160 304 160
WIRE 304 192 304 160
WIRE 304 192 208 192
WIRE 96 208 32 208
WIRE 32 240 32 208
FLAG -208 -80 S
IOPIN -208 -80 In
FLAG -208 0 A
IOPIN -208 0 In
FLAG -208 64 B
IOPIN -208 64 In
FLAG -64 240 S
FLAG 64 0 S
FLAG 64 -32 A
FLAG 96 176 B
FLAG -64 304 Vdd
IOPIN -64 304 BiDir
FLAG 384 192 Vdd
IOPIN 384 192 BiDir
FLAG -64 192 gnd1
IOPIN -64 192 BiDir
FLAG 368 32 gnd1
IOPIN 368 32 BiDir
FLAG 208 160 gnd1
IOPIN 208 160 BiDir
FLAG 176 -48 gnd1
IOPIN 176 -48 BiDir
FLAG 192 224 Vdd
IOPIN 192 224 BiDir
FLAG 160 16 Vdd
IOPIN 160 16 BiDir
FLAG 480 112 out
IOPIN 480 112 Out
SYMBOL ORRRRR 416 112 R0
SYMATTR InstName X1
SYMBOL NOT -32 240 R0
SYMATTR InstName X2
SYMBOL ANDDDDD 112 -16 R0
SYMATTR InstName X3
SYMBOL ANDDDDD 144 192 R0
SYMATTR InstName X4
