Version 4.1
SHEET 1 880 680
WIRE -416 -16 -416 -32
WIRE -288 16 -288 0
WIRE -160 16 -160 -48
WIRE -416 80 -416 64
WIRE -416 256 -416 240
WIRE -416 432 -416 416
FLAG -288 16 0
FLAG -416 80 0
FLAG -416 256 0
FLAG -288 -80 vdd
FLAG -416 -32 A
FLAG -416 160 B
FLAG -160 16 0
FLAG -160 -48 gnd1
FLAG 80 -32 vdd
FLAG 80 -80 Out
FLAG 80 -144 gnd1
FLAG 48 0 A
FLAG 16 -48 B
FLAG -416 432 0
FLAG -416 336 S
FLAG 16 -112 A
SYMBOL voltage -416 144 R0
WINDOW 123 0 0 Left 0
WINDOW 39 0 0 Left 0
SYMATTR InstName B1
SYMATTR Value PULSE(0 5 0 0 0 1u 2u)
SYMBOL voltage -416 -32 R0
WINDOW 123 0 0 Left 0
WINDOW 39 0 0 Left 0
SYMATTR InstName A1
SYMATTR Value PULSE(0 5 0 0 0 0.5u 1u)
SYMBOL voltage -288 -96 R0
SYMATTR InstName vdd1
SYMATTR Value 5
SYMBOL MUX21 48 -96 R0
SYMATTR InstName X2
SYMBOL voltage -416 320 R0
WINDOW 123 0 0 Left 0
WINDOW 39 0 0 Left 0
SYMATTR InstName S
SYMATTR Value PULSE(0 5 0 0 0 1u 2u)
TEXT 216 -24 Left 2 !.model NMOS1 nmos level=1\n+ vto=0.7 kp=120u lambda=0.02 UO=650\n+ phi=0.7 gamma=0.0 tox=2e-8\n+ CGDO=200e-12 CGSO=200e-12 CGBO=1e-10\n+ CJ=400e-6 CJSW=300e-12\n+ NSUB=1e17\n+ IS=1e-14
TEXT 216 184 Left 2 !.model PMOS1 pmos level=1\n+ vto=-0.7 kp=60u lambda=0.02 UO=325\n+ phi=0.7 gamma=0.0 tox=2e-8\n+ CGDO=200e-12 CGSO=200e-12 CGBO=1e-10\n+ CJ=400e-6 CJSW=300e-12\n+ NSUB=1e17\n+ IS=1e-14\n+ TPG=-1
TEXT 0 264 Left 2 !.tran 2u
