Version 4.1
SHEET 1 1188 1624
WIRE -224 -512 -224 -624
WIRE 192 -512 -224 -512
WIRE -224 -480 -224 -512
WIRE 192 -480 -224 -480
WIRE 320 -464 288 -464
WIRE 384 -464 320 -464
WIRE 448 -464 384 -464
WIRE 512 -464 448 -464
WIRE 560 -464 512 -464
WIRE -224 -448 -224 -480
WIRE 192 -448 -224 -448
WIRE -224 -416 -224 -448
WIRE 192 -416 -224 -416
WIRE -112 -208 -112 -624
WIRE 192 -208 -112 -208
WIRE -224 -176 -224 -416
WIRE 192 -176 -224 -176
WIRE -224 -144 -224 -176
WIRE 192 -144 -224 -144
WIRE -224 -112 -224 -144
WIRE 192 -112 -224 -112
WIRE -16 96 -16 -624
WIRE 192 96 -16 96
WIRE -112 128 -112 -208
WIRE 176 128 -112 128
WIRE -224 160 -224 -112
WIRE 192 160 -224 160
WIRE -224 192 -224 160
WIRE 192 192 -224 192
WIRE 80 416 80 -624
WIRE 192 416 80 416
WIRE -16 448 -16 96
WIRE 192 448 -16 448
WIRE -112 480 -112 128
WIRE 192 480 -112 480
WIRE -224 512 -224 192
WIRE 192 512 -224 512
WIRE -192 656 -528 656
WIRE -528 720 -528 656
WIRE -96 720 -224 720
WIRE -192 784 -192 656
WIRE -96 784 -192 784
WIRE -624 816 -624 720
WIRE -336 816 -624 816
WIRE -224 832 -224 720
WIRE -736 880 -736 720
WIRE -336 880 -736 880
WIRE -224 1040 -224 832
WIRE -96 1040 -224 1040
WIRE -432 1104 -432 720
WIRE -96 1104 -432 1104
FLAG 816 -112 out1
IOPIN 816 -112 Out
FLAG 816 -64 out0
IOPIN 816 -64 Out
FLAG 816 -208 out3
IOPIN 816 -208 Out
FLAG 816 -160 out2
IOPIN 816 -160 Out
FLAG 816 -304 out5
IOPIN 816 -304 Out
FLAG 816 -256 out4
IOPIN 816 -256 Out
FLAG 816 -400 out7
IOPIN 816 -400 Out
FLAG 816 -352 out6
IOPIN 816 -352 Out
FLAG 80 -624 A0
IOPIN 80 -624 In
FLAG -16 -624 A1
IOPIN -16 -624 In
FLAG -112 -624 A2
IOPIN -112 -624 In
FLAG -224 -624 A3
IOPIN -224 -624 In
FLAG -432 720 B0
IOPIN -432 720 In
FLAG -528 720 B1
IOPIN -528 720 In
FLAG -624 720 B2
IOPIN -624 720 In
FLAG -736 720 B3
IOPIN -736 720 In
FLAG 256 -576 Vdd
IOPIN 256 -576 BiDir
FLAG 256 -272 Vdd
IOPIN 256 -272 BiDir
FLAG 256 32 Vdd
IOPIN 256 32 BiDir
FLAG 256 352 Vdd
IOPIN 256 352 BiDir
FLAG -320 912 Vdd
IOPIN -320 912 BiDir
FLAG 192 -400 gnd1
IOPIN 192 -400 BiDir
FLAG 192 -96 gnd1
IOPIN 192 -96 BiDir
FLAG 192 208 gnd1
IOPIN 192 208 BiDir
FLAG 192 528 gnd1
IOPIN 192 528 BiDir
FLAG -336 752 gnd1
IOPIN -336 752 BiDir
FLAG -80 816 Vdd
IOPIN -80 816 BiDir
FLAG -96 656 gnd1
IOPIN -96 656 BiDir
FLAG -80 1136 Vdd
IOPIN -80 1136 BiDir
FLAG -96 976 gnd1
IOPIN -96 976 BiDir
FLAG 16 1056 S0
FLAG 224 576 S1
FLAG 224 256 S1
FLAG 224 -48 S1
FLAG 224 -352 S1
FLAG 256 -368 S0
FLAG 256 -64 S0
FLAG 256 240 S0
FLAG 256 560 S0
FLAG 16 736 S1
FLAG 288 144 out1
FLAG 288 464 out0
FLAG 288 -160 out2
FLAG 320 -464 out3
FLAG 384 -464 out4
FLAG 448 -464 out5
FLAG 512 -464 out6
FLAG 560 -464 out7
SYMBOL mux41 240 144 R0
SYMATTR InstName X1
SYMBOL mux41 240 464 R0
SYMATTR InstName X2
SYMBOL mux41 240 -160 R0
SYMATTR InstName X3
SYMBOL mux41 240 -464 R0
SYMATTR InstName X4
SYMBOL ORRRRR -288 832 R0
SYMATTR InstName X5
SYMBOL ORRRRR -48 736 R0
SYMATTR InstName X7
SYMBOL ORRRRR -48 1056 R0
SYMATTR InstName X10
