Version 4.1
SHEET 1 908 680
WIRE -80 240 -80 224
FLAG -80 144 0
FLAG 32 384 0
FLAG -80 -32 0
FLAG -80 64 Vdd
FLAG -80 -112 B
FLAG 32 304 A
FLAG -80 240 0
FLAG -80 224 gnd1
FLAG 144 144 A
FLAG 144 208 B
FLAG 160 240 Vdd
FLAG 256 160 out
FLAG 144 80 gnd1
SYMBOL ORRRRR 192 160 R0
SYMATTR InstName X1
SYMBOL voltage -80 48 R0
WINDOW 123 0 0 Left 0
WINDOW 39 0 0 Left 0
SYMATTR InstName Vdd
SYMATTR Value 5
SYMBOL voltage 32 288 R0
WINDOW 123 0 0 Left 0
WINDOW 39 0 0 Left 0
SYMATTR InstName A
SYMATTR Value PULSE(0 5 0 0 0 0.5u 1u)
SYMBOL voltage -80 -128 R0
WINDOW 123 0 0 Left 0
WINDOW 39 0 0 Left 0
SYMATTR InstName B
SYMATTR Value PULSE(0 5 0 0 0 1u 2u)
TEXT 352 -64 Left 2 !.model NMOS1 nmos level=1\n+ vto=0.7 kp=120u lambda=0.02 UO=650\n+ phi=0.7 gamma=0.0 tox=2e-8\n+ CGDO=200e-12 CGSO=200e-12 CGBO=1e-10\n+ CJ=400e-6 CJSW=300e-12\n+ NSUB=1e17\n+ IS=1e-14
TEXT 352 152 Left 2 !.model PMOS1 pmos level=1\n+ vto=-0.7 kp=60u lambda=0.02 UO=325\n+ phi=0.7 gamma=0.0 tox=2e-8\n+ CGDO=200e-12 CGSO=200e-12 CGBO=1e-10\n+ CJ=400e-6 CJSW=300e-12\n+ NSUB=1e17\n+ IS=1e-14\n+ TPG=-1
TEXT 144 -96 Left 2 !.tran 2u
