Version 4.1
SHEET 1 880 680
WIRE -512 -144 -720 -144
WIRE -720 -48 -720 -144
WIRE -720 80 -720 -48
WIRE -704 80 -720 80
WIRE -480 96 -592 96
WIRE -480 144 -480 96
WIRE -384 144 -480 144
WIRE -384 208 -448 208
WIRE -448 256 -448 208
WIRE -448 256 -592 256
FLAG -1056 96 A
IOPIN -1056 96 In
FLAG -1056 144 B
IOPIN -1056 144 In
FLAG -1056 192 Cin
IOPIN -1056 192 In
FLAG -416 -128 out
IOPIN -416 -128 Out
FLAG -272 160 cout
IOPIN -272 160 Out
FLAG -816 -64 A
FLAG -704 240 A
FLAG -816 -16 B
FLAG -704 272 B
FLAG -704 112 Cin
FLAG -512 -96 Cin
FLAG -832 -96 gnd1
IOPIN -832 -96 BiDir
FLAG -528 -176 gnd1
IOPIN -528 -176 BiDir
FLAG -592 64 gnd1
IOPIN -592 64 BiDir
FLAG -384 80 gnd1
IOPIN -384 80 BiDir
FLAG -816 0 Vdd
IOPIN -816 0 BiDir
FLAG -608 128 Vdd
IOPIN -608 128 BiDir
FLAG -608 288 Vdd
IOPIN -608 288 BiDir
FLAG -368 240 Vdd
IOPIN -368 240 BiDir
FLAG -512 -80 Vdd
IOPIN -512 -80 BiDir
FLAG -592 224 gnd1
IOPIN -592 224 BiDir
SYMBOL XORR -480 -128 R0
SYMATTR InstName X1
SYMBOL XORR -784 -48 R0
SYMATTR InstName X2
SYMBOL ORRRRR -336 160 R0
SYMATTR InstName X3
SYMBOL ANDDDDD -656 96 R0
SYMATTR InstName X4
SYMBOL ANDDDDD -656 256 R0
SYMATTR InstName X5
