Version 4.1
SHEET 1 1432 680
WIRE 400 -416 400 -464
WIRE 288 304 192 304
WIRE 288 336 192 336
WIRE 288 368 192 368
WIRE 288 400 192 400
WIRE 288 432 192 432
WIRE 288 464 192 464
WIRE 288 496 192 496
WIRE 288 528 192 528
WIRE 288 560 192 560
FLAG 256 -416 0
FLAG 400 -416 0
FLAG 400 -464 gnd1
FLAG -48 288 A0
FLAG -48 320 A1
FLAG -48 352 A2
FLAG -48 384 A3
FLAG -48 416 B0
FLAG -48 448 B1
FLAG -48 480 B2
FLAG -48 512 B3
FLAG 192 304 out0
FLAG 192 336 out1
FLAG 192 368 out2
FLAG 192 400 out3
FLAG 192 432 out4
FLAG 192 464 out5
FLAG 192 496 out6
FLAG 192 528 out7
FLAG -48 240 Vdd
FLAG -48 560 gnd1
FLAG 256 -496 Vdd
FLAG 192 560 DZ_f
FLAG 352 304 0
FLAG 352 336 0
FLAG 352 368 0
FLAG 352 400 0
FLAG 352 432 0
FLAG 352 464 0
FLAG 352 496 0
FLAG 352 528 0
FLAG 352 560 0
FLAG -80 -1040 0
FLAG -80 -752 0
FLAG -80 -624 0
FLAG -80 -496 0
FLAG -80 -352 0
FLAG -80 -208 0
FLAG -80 -64 0
FLAG -80 -144 A0
FLAG -80 -288 A1
FLAG -80 -432 A2
FLAG -80 -576 A3
FLAG -80 -704 B0
FLAG -80 -832 B1
FLAG -80 -976 B2
FLAG -80 -1120 B3
FLAG -80 -896 0
SYMBOL voltage 256 -512 R0
SYMATTR InstName Vdd1
SYMATTR Value 5
SYMBOL Modulus 64 400 R0
SYMATTR InstName X1
SYMBOL cap 352 288 R90
WINDOW 0 0 32 VBottom 2
WINDOW 3 -19 70 VTop 2
SYMATTR InstName C1
SYMATTR Value 10p
SYMBOL cap 352 320 R90
WINDOW 0 10 63 VBottom 2
WINDOW 3 32 32 VTop 2
SYMATTR InstName C2
SYMATTR Value 10p
SYMBOL cap 352 352 R90
WINDOW 0 5 53 VBottom 2
WINDOW 3 32 32 VTop 2
SYMATTR InstName C3
SYMATTR Value 10p
SYMBOL cap 352 384 R90
WINDOW 0 0 32 VBottom 2
WINDOW 3 32 32 VTop 2
SYMATTR InstName C4
SYMATTR Value 10p
SYMBOL cap 352 416 R90
WINDOW 0 0 32 VBottom 2
WINDOW 3 32 32 VTop 2
SYMATTR InstName C5
SYMATTR Value 10p
SYMBOL cap 352 448 R90
WINDOW 0 0 32 VBottom 2
WINDOW 3 32 32 VTop 2
SYMATTR InstName C6
SYMATTR Value 10p
SYMBOL cap 352 480 R90
WINDOW 0 0 32 VBottom 2
WINDOW 3 32 32 VTop 2
SYMATTR InstName C7
SYMATTR Value 10p
SYMBOL cap 352 512 R90
WINDOW 0 0 32 VBottom 2
WINDOW 3 32 32 VTop 2
SYMATTR InstName C8
SYMATTR Value 10p
SYMBOL cap 352 544 R90
WINDOW 0 0 32 VBottom 2
WINDOW 3 32 32 VTop 2
SYMATTR InstName C9
SYMATTR Value 10p
SYMBOL voltage -80 -160 R0
WINDOW 123 0 0 Left 0
WINDOW 39 0 0 Left 0
SYMATTR InstName A1
SYMATTR Value 5
SYMBOL voltage -80 -304 R0
WINDOW 123 0 0 Left 0
WINDOW 39 0 0 Left 0
SYMATTR InstName A2
SYMATTR Value 5
SYMBOL voltage -80 -448 R0
WINDOW 123 0 0 Left 0
WINDOW 39 0 0 Left 0
SYMATTR InstName A3
SYMATTR Value 5
SYMBOL voltage -80 -592 R0
WINDOW 123 0 0 Left 0
WINDOW 39 0 0 Left 0
SYMATTR InstName A4
SYMATTR Value 5
SYMBOL voltage -80 -720 R0
WINDOW 3 24 44 Left 2
WINDOW 123 0 0 Left 0
WINDOW 39 0 0 Left 0
SYMATTR Value 5
SYMATTR InstName B1
SYMBOL voltage -80 -848 R0
WINDOW 3 24 44 Left 2
WINDOW 123 0 0 Left 0
WINDOW 39 0 0 Left 0
SYMATTR Value 5
SYMATTR InstName B2
SYMBOL voltage -80 -992 R0
WINDOW 3 24 44 Left 2
WINDOW 123 0 0 Left 0
WINDOW 39 0 0 Left 0
SYMATTR Value 5
SYMATTR InstName B3
SYMBOL voltage -80 -1136 R0
WINDOW 3 24 44 Left 2
WINDOW 123 0 0 Left 0
WINDOW 39 0 0 Left 0
SYMATTR Value 5
SYMATTR InstName B4
TEXT 376 -224 Left 2 !.model NMOS1 nmos level=1\n+ vto=0.7 kp=110e-6 lambda=0.04 uo=600\n+ phi=0.6 gamma=0.4 tox=20e-9 nsub=1e16\n+ cgdo=220e-12 cgso=220e-12 cgbo=100e-12\n+ cj=5e-4 cjsw=3e-10 mj=0.5 mjsw=0.33\n+ is=1e-12 js=1e-8 rsh=50
TEXT 368 -16 Left 2 !.model PMOS1 pmos level=1\n+ vto=-0.7 kp=55e-6 lambda=0.05 uo=300\n+ phi=0.6 gamma=0.4 tox=20e-9 nsub=1e16\n+ cgdo=220e-12 cgso=220e-12 cgbo=100e-12\n+ cj=5e-4 cjsw=3e-10 mj=0.5 mjsw=0.33\n+ is=1e-12 js=1e-8 rsh=100\n+ tpg=-1
TEXT 488 200 Left 2 !.tran 16µs
TEXT 360 -336 Left 2 !.options abstol=1e-10 reltol=0.01 vntol=1e-5\n.options gmin=1e-11 itl1=500 itl4=1000 itl5=0\n.options noopiter
