Version 4.1
SHEET 1 880 680
WIRE 160 96 96 96
WIRE 336 128 224 128
WIRE 160 160 96 160
WIRE 336 208 336 128
WIRE 368 208 336 208
WIRE 192 240 192 208
WIRE 192 240 144 240
WIRE 368 272 336 272
WIRE 160 368 112 368
WIRE 336 400 336 272
WIRE 336 400 224 400
WIRE 160 432 112 432
WIRE 144 528 144 240
WIRE 192 528 192 480
WIRE 192 528 144 528
WIRE 400 528 400 320
FLAG 224 64 gnd1
IOPIN 224 64 BiDir
FLAG 224 336 gnd1
IOPIN 224 336 BiDir
FLAG 432 176 gnd1
IOPIN 432 176 BiDir
FLAG 432 288 Vdd
IOPIN 432 288 BiDir
FLAG 224 448 Vdd
IOPIN 224 448 BiDir
FLAG 224 176 Vdd
IOPIN 224 176 BiDir
FLAG 96 96 A0
IOPIN 96 96 In
FLAG 96 160 A1
IOPIN 96 160 In
FLAG 112 368 A2
IOPIN 112 368 In
FLAG 112 432 A3
IOPIN 112 432 In
FLAG 144 528 S0
IOPIN 144 528 In
FLAG 400 528 S1
IOPIN 400 528 In
FLAG 432 240 out
IOPIN 432 240 Out
SYMBOL MUX21 192 112 R0
SYMATTR InstName X1
SYMBOL MUX21 192 384 R0
SYMATTR InstName X2
SYMBOL MUX21 400 224 R0
SYMATTR InstName X3
