Version 4.1
SHEET 1 880 740
WIRE -640 -592 -640 -608
WIRE -640 -496 -640 -512
WIRE -240 -496 -240 -512
WIRE -112 -496 -112 -560
WIRE -640 -320 -640 -336
WIRE -640 -256 -640 -272
WIRE -640 -160 -640 -176
WIRE -640 16 -640 0
WIRE -640 192 -640 176
WIRE -640 272 -640 256
WIRE -640 368 -640 352
WIRE -640 544 -640 528
WIRE -640 720 -640 704
FLAG -240 -496 0
FLAG -640 368 0
FLAG -640 544 0
FLAG -240 -592 vdd
FLAG -640 256 B1
FLAG -640 448 B2
FLAG -112 -496 0
FLAG -112 -560 gnd1
FLAG -640 720 0
FLAG -640 624 B3
FLAG -640 -160 0
FLAG -640 16 0
FLAG -640 -272 A2
FLAG -640 -80 A3
FLAG -640 192 0
FLAG -640 96 B0
FLAG -640 -496 0
FLAG -640 -320 0
FLAG -640 -608 A0
FLAG -640 -416 A1
FLAG -192 480 gnd1
FLAG -192 192 vdd
FLAG -192 224 A0
FLAG -192 256 A1
FLAG -192 288 A2
FLAG -192 320 A3
FLAG -192 352 B0
FLAG -192 384 B1
FLAG -192 416 B2
FLAG -192 448 B3
FLAG -64 352 out0
FLAG -64 384 out1
FLAG -64 416 out2
FLAG -64 448 out3
SYMBOL Reminder_b -128 304 R0
SYMATTR InstName X1
SYMBOL voltage -640 432 R0
WINDOW 123 0 0 Left 0
WINDOW 39 0 0 Left 0
SYMATTR InstName B1
SYMATTR Value PULSE(0 5 0 10n 10n 0.5u 1u)
SYMBOL voltage -640 256 R0
WINDOW 123 0 0 Left 0
WINDOW 39 0 0 Left 0
SYMATTR InstName A1
SYMATTR Value PULSE(0 5 0 10n 10n 1u 2u)
SYMBOL voltage -240 -608 R0
SYMATTR InstName vdd1
SYMATTR Value 5
SYMBOL voltage -640 608 R0
WINDOW 123 0 0 Left 0
WINDOW 39 0 0 Left 0
SYMATTR InstName S1
SYMATTR Value PULSE(0 5 0 10n 10n 1u 2u)
SYMBOL voltage -640 -96 R0
WINDOW 123 0 0 Left 0
WINDOW 39 0 0 Left 0
SYMATTR InstName B2
SYMATTR Value PULSE(0 5 0 10n 10n 1u 2u)
SYMBOL voltage -640 -272 R0
WINDOW 123 0 0 Left 0
WINDOW 39 0 0 Left 0
SYMATTR InstName A2
SYMATTR Value PULSE(0 5 0 10n 10n 0.5u 1u)
SYMBOL voltage -640 80 R0
WINDOW 123 0 0 Left 0
WINDOW 39 0 0 Left 0
SYMATTR InstName S2
SYMATTR Value PULSE(0 5 0 10n 10n 0.5u 1u)
SYMBOL voltage -640 -432 R0
WINDOW 123 0 0 Left 0
WINDOW 39 0 0 Left 0
SYMATTR InstName B3
SYMATTR Value PULSE(0 5 0 10n 10n 1u 2u)
SYMBOL voltage -640 -608 R0
WINDOW 123 0 0 Left 0
WINDOW 39 0 0 Left 0
SYMATTR InstName A3
SYMATTR Value PULSE(0 5 0 10n 10n 0.5u 1u)
TEXT 0 -424 Left 2 !.model NMOS1 nmos level=1\n+ vto=0.7 kp=110e-6 lambda=0.04 uo=600\n+ phi=0.6 gamma=0.4 tox=20e-9 nsub=1e16\n+ cgdo=220e-12 cgso=220e-12 cgbo=100e-12\n+ cj=5e-4 cjsw=3e-10 mj=0.5 mjsw=0.33\n+ is=1e-12 js=1e-8 rsh=50
TEXT 0 -216 Left 2 !.model PMOS1 pmos level=1\n+ vto=-0.7 kp=55e-6 lambda=0.05 uo=300\n+ phi=0.6 gamma=0.4 tox=20e-9 nsub=1e16\n+ cgdo=220e-12 cgso=220e-12 cgbo=100e-12\n+ cj=5e-4 cjsw=3e-10 mj=0.5 mjsw=0.33\n+ is=1e-12 js=1e-8 rsh=100\n+ tpg=-1
TEXT 0 -552 Left 2 !.tran 0.5n 2u
TEXT -8 -520 Left 2 !.options abstol=1e-10 reltol=0.01 vntol=1e-5\n.options gmin=1e-11 itl1=500 itl4=1000 itl5=0\n.options noopiter
