Version 4.1
SHEET 1 880 692
WIRE -560 -640 -560 -656
WIRE -560 -544 -560 -560
WIRE -160 -544 -160 -560
WIRE -32 -544 -32 -608
WIRE -560 -368 -560 -384
WIRE -560 -304 -560 -320
WIRE -560 -208 -560 -224
WIRE -560 -32 -560 -48
WIRE -368 288 -384 288
WIRE -352 288 -368 288
WIRE -384 320 -384 288
WIRE -368 320 -384 320
FLAG -160 -544 0
FLAG -160 -640 vdd
FLAG -32 -544 0
FLAG -32 -608 gnd1
FLAG -560 -208 0
FLAG -560 -32 0
FLAG -560 -320 A2
FLAG -560 -128 A3
FLAG -560 -544 0
FLAG -560 -368 0
FLAG -560 -656 A0
FLAG -560 -464 A1
FLAG -368 160 gnd1
FLAG -368 352 vdd
FLAG -368 192 A0
FLAG -368 224 A1
FLAG -368 256 A2
FLAG -384 288 A3
FLAG -240 192 out0
FLAG -240 224 out1
FLAG -240 256 out2
FLAG -240 288 out3
SYMBOL voltage -160 -656 R0
SYMATTR InstName vdd1
SYMATTR Value 5
SYMBOL voltage -560 -144 R0
WINDOW 123 0 0 Left 0
WINDOW 39 0 0 Left 0
SYMATTR InstName B2
SYMATTR Value PULSE(0 5 0 10n 10n 1u 2u)
SYMBOL voltage -560 -320 R0
WINDOW 123 0 0 Left 0
WINDOW 39 0 0 Left 0
SYMATTR InstName A2
SYMATTR Value PULSE(0 5 0 10n 10n 0.5u 1u)
SYMBOL voltage -560 -480 R0
WINDOW 123 0 0 Left 0
WINDOW 39 0 0 Left 0
SYMATTR InstName B3
SYMATTR Value PULSE(0 5 0 10n 10n 1u 2u)
SYMBOL voltage -560 -656 R0
WINDOW 123 0 0 Left 0
WINDOW 39 0 0 Left 0
SYMATTR InstName A3
SYMATTR Value PULSE(0 5 0 10n 10n 0.5u 1u)
SYMBOL sign_mux -304 176 R0
SYMATTR InstName X1
TEXT -184 -440 Left 2 !.model NMOS1 nmos level=1\n+ vto=0.7 kp=110e-6 lambda=0.04 uo=600\n+ phi=0.6 gamma=0.4 tox=20e-9 nsub=1e16\n+ cgdo=220e-12 cgso=220e-12 cgbo=100e-12\n+ cj=5e-4 cjsw=3e-10 mj=0.5 mjsw=0.33\n+ is=1e-12 js=1e-8 rsh=50
TEXT -184 -232 Left 2 !.model PMOS1 pmos level=1\n+ vto=-0.7 kp=55e-6 lambda=0.05 uo=300\n+ phi=0.6 gamma=0.4 tox=20e-9 nsub=1e16\n+ cgdo=220e-12 cgso=220e-12 cgbo=100e-12\n+ cj=5e-4 cjsw=3e-10 mj=0.5 mjsw=0.33\n+ is=1e-12 js=1e-8 rsh=100\n+ tpg=-1
TEXT -176 0 Left 2 !.tran 0.5n 2u
TEXT 72 -568 Left 2 !.options abstol=1e-10 reltol=0.01 vntol=1e-5\n.options gmin=1e-11 itl1=500 itl4=1000 itl5=0\n.options noopiter
