Version 4.1
SHEET 1 880 680
WIRE 432 -816 176 -816
WIRE 432 -560 224 -560
WIRE 464 -512 464 -768
WIRE 432 -288 272 -288
WIRE -160 -272 -480 -272
WIRE 464 -240 464 -512
WIRE -176 -176 -272 -176
WIRE -160 -128 -160 -272
WIRE -80 -128 -160 -128
WIRE 176 -112 176 -816
WIRE 176 -112 64 -112
WIRE -176 -96 -176 -176
WIRE -80 -96 -176 -96
WIRE 224 -80 224 -560
WIRE 224 -80 64 -80
WIRE -80 -64 -496 -64
WIRE 272 -48 272 -288
WIRE 272 -48 64 -48
WIRE -80 -32 -272 -32
WIRE 432 -32 320 -32
WIRE 320 -16 320 -32
WIRE 320 -16 64 -16
WIRE -272 0 -272 -32
WIRE 464 16 464 -240
WIRE 464 160 464 16
FLAG -272 -464 A0
IOPIN -272 -464 In
FLAG -272 -432 A1
IOPIN -272 -432 In
FLAG -272 -400 A2
IOPIN -272 -400 In
FLAG -272 -368 A3
IOPIN -272 -368 In
FLAG -16 -464 out0
IOPIN -16 -464 Out
FLAG -16 -432 out1
IOPIN -16 -432 Out
FLAG -16 -400 out2
IOPIN -16 -400 Out
FLAG -16 -368 out3
IOPIN -16 -368 Out
FLAG 480 272 Vdd
IOPIN 480 272 BiDir
FLAG 496 176 Vdd
IOPIN 496 176 BiDir
FLAG 496 -16 Vdd
IOPIN 496 -16 BiDir
FLAG 496 -272 Vdd
IOPIN 496 -272 BiDir
FLAG 496 -544 Vdd
IOPIN 496 -544 BiDir
FLAG 496 -800 Vdd
IOPIN 496 -800 BiDir
FLAG 432 -96 A3
FLAG 432 -352 A2
FLAG 432 -624 A1
FLAG 432 -880 A0
FLAG 64 144 Vdd
IOPIN 64 144 BiDir
FLAG -576 -272 A0
FLAG -368 -176 A1
FLAG -592 -64 A2
FLAG -368 0 A3
FLAG -80 0 Vdd
IOPIN -80 0 BiDir
FLAG -80 32 gnd1
IOPIN -80 32 BiDir
FLAG -80 64 gnd1
IOPIN -80 64 BiDir
FLAG -80 96 gnd1
IOPIN -80 96 BiDir
FLAG -80 128 gnd1
IOPIN -80 128 BiDir
FLAG 64 -144 gnd1
IOPIN 64 -144 BiDir
FLAG 432 160 gnd1
IOPIN 432 160 BiDir
FLAG 496 -128 gnd1
IOPIN 496 -128 BiDir
FLAG 496 -384 gnd1
IOPIN 496 -384 BiDir
FLAG 496 -656 gnd1
IOPIN 496 -656 BiDir
FLAG 496 -912 gnd1
IOPIN 496 -912 BiDir
FLAG 496 -848 out0
FLAG 496 -592 out1
FLAG 496 -320 out2
FLAG 496 -64 out3
FLAG -368 64 Vdd
IOPIN -368 64 BiDir
FLAG -368 -112 Vdd
IOPIN -368 -112 BiDir
FLAG -576 -208 Vdd
IOPIN -576 -208 BiDir
FLAG -592 0 Vdd
IOPIN -592 0 BiDir
FLAG -368 -48 gnd1
IOPIN -368 -48 BiDir
FLAG -368 -224 gnd1
IOPIN -368 -224 BiDir
FLAG -576 -320 gnd1
IOPIN -576 -320 BiDir
FLAG -592 -112 gnd1
IOPIN -592 -112 BiDir
FLAG 448 272 Sel
IOPIN 448 272 In
SYMBOL AddSub -16 0 R0
SYMATTR InstName X1
SYMBOL MUX21 464 -80 R0
SYMATTR InstName X2
SYMBOL ANDDDDD 464 224 R270
SYMATTR InstName X3
SYMBOL MUX21 464 -336 R0
SYMATTR InstName X4
SYMBOL MUX21 464 -608 R0
SYMATTR InstName X5
SYMBOL MUX21 464 -864 R0
SYMATTR InstName X6
SYMBOL NOT -336 -176 R0
SYMATTR InstName X7
SYMBOL NOT -336 0 R0
WINDOW 0 17 -29 Bottom 2
SYMATTR InstName X8
SYMBOL NOT -560 -64 R0
SYMATTR InstName X9
SYMBOL NOT -544 -272 R0
SYMATTR InstName X10
